<?xml version="1.0" encoding="UTF-8"?>

<!-- generated on 2025-04-09 10:47:03 by Eclipse SUMO sumo Version 1.22.0
-->

<sumoConfiguration xmlns:xsi="http://www.w3.org/2001/XMLSchema-instance" xsi:noNamespaceSchemaLocation="http://sumo.dlr.de/xsd/sumoConfiguration.xsd">

    <input>
        <net-file value="test.net.xml"/>
        <route-files value="test.rou.xml"/>
        <junction-taz value="true"/>
    </input>

</sumoConfiguration>
