<?xml version="1.0" encoding="UTF-8"?>

<!-- generated on 2025-04-09 10:47:02 by Eclipse SUMO netedit Version 1.22.0
<neteditConfiguration xmlns:xsi="http://www.w3.org/2001/XMLSchema-instance" xsi:noNamespaceSchemaLocation="http://sumo.dlr.de/xsd/neteditConfiguration.xsd">

    <input>
        <sumocfg-file value="C:\Users\chour\Desktop\test.sumocfg"/>
        <route-files value="C:\Users\chour\Desktop\test.rou.xml"/>
        <sumo-net-file value="C:\Users\chour\Desktop\test.net.xml"/>
    </input>

    <output>
        <output-file value="C:\Users\chour\Desktop\test.net.xml"/>
    </output>

    <processing>
        <offset.disable-normalization value="true"/>
    </processing>

    <junctions>
        <no-turnarounds value="true"/>
    </junctions>

    <netedit>
        <new-network value="false"/>
    </netedit>

</neteditConfiguration>
-->

<net version="1.20" junctionCornerDetail="5" limitTurnSpeed="5.50" xmlns:xsi="http://www.w3.org/2001/XMLSchema-instance" xsi:noNamespaceSchemaLocation="http://sumo.dlr.de/xsd/net_file.xsd">

    <location netOffset="0.00,0.00" convBoundary="-168.80,22.33,34.82,69.81" origBoundary="10000000000.00,10000000000.00,-10000000000.00,-10000000000.00" projParameter="!"/>

    <edge id=":J4_0" function="internal">
        <lane id=":J4_0_0" index="0" disallow="pedestrian" speed="6.64" length="9.20" shape="-59.97,25.30 -62.40,25.69 -64.16,26.80 -65.23,28.61 -65.63,31.14"/>
    </edge>
    <edge id=":J4_1" function="internal">
        <lane id=":J4_1_0" index="0" disallow="pedestrian" speed="13.89" length="14.40" shape="-59.97,25.30 -74.37,25.50"/>
    </edge>
    <edge id=":J4_2" function="internal">
        <lane id=":J4_2_0" index="0" disallow="pedestrian" speed="13.89" length="14.40" shape="-74.41,22.31 -60.02,22.10"/>
    </edge>
    <edge id=":J4_3" function="internal">
        <lane id=":J4_3_0" index="0" disallow="pedestrian" speed="7.94" length="4.09" shape="-74.41,22.31 -70.51,22.81 -70.38,22.89"/>
    </edge>
    <edge id=":J4_6" function="internal">
        <lane id=":J4_6_0" index="0" disallow="pedestrian" speed="7.94" length="10.23" shape="-70.38,22.89 -67.74,24.45 -66.11,27.23 -65.63,31.14"/>
    </edge>
    <edge id=":J4_4" function="internal">
        <lane id=":J4_4_0" index="0" disallow="pedestrian" speed="6.44" length="9.03" shape="-68.83,31.08 -69.13,28.61 -70.16,26.86 -71.90,25.82 -74.37,25.50"/>
    </edge>
    <edge id=":J4_5" function="internal">
        <lane id=":J4_5_0" index="0" disallow="pedestrian" speed="8.11" length="14.24" shape="-68.83,31.08 -68.21,27.20 -66.54,24.41 -63.81,22.71 -60.02,22.10"/>
    </edge>

    <edge id="-E2" from="J4" to="J3" priority="-1">
        <lane id="-E2_0" index="0" disallow="pedestrian" speed="13.89" length="94.42" shape="-74.37,25.50 -168.78,26.83"/>
    </edge>
    <edge id="-E3" from="J5" to="J4" priority="-1">
        <lane id="-E3_0" index="0" disallow="pedestrian" speed="13.89" length="94.82" shape="34.84,23.93 -59.97,25.30"/>
    </edge>
    <edge id="-E4" from="J6" to="J4" priority="-1">
        <lane id="-E4_0" index="0" disallow="pedestrian" speed="13.89" length="38.71" shape="-69.57,69.78 -68.83,31.08"/>
    </edge>
    <edge id="E2" from="J3" to="J4" priority="-1">
        <lane id="E2_0" index="0" disallow="pedestrian" speed="13.89" length="94.42" shape="-168.82,23.63 -74.41,22.31"/>
    </edge>
    <edge id="E3" from="J4" to="J5" priority="-1">
        <lane id="E3_0" index="0" disallow="pedestrian" speed="13.89" length="94.82" shape="-60.02,22.10 34.79,20.73"/>
    </edge>
    <edge id="E4" from="J4" to="J6" priority="-1">
        <lane id="E4_0" index="0" disallow="pedestrian" speed="13.89" length="38.71" shape="-65.63,31.14 -66.37,69.84"/>
    </edge>

    <tlLogic id="J4" type="static" programID="0" offset="0">
        <phase duration="42" state="GGGgrr"/>
        <phase duration="3"  state="Gyyyrr"/>
        <phase duration="42" state="GrrrGG"/>
        <phase duration="3"  state="Grrryy"/>
    </tlLogic>

    <junction id="J3" type="dead_end" x="-168.80" y="25.23" incLanes="-E2_0" intLanes="" shape="-168.80,25.23 -168.75,28.43 -168.80,25.23"/>
    <junction id="J4" type="traffic_light" x="-67.09" y="23.80" incLanes="-E3_0 E2_0 -E4_0" intLanes=":J4_0_0 :J4_1_0 :J4_2_0 :J4_6_0 :J4_4_0 :J4_5_0" shape="-59.95,26.90 -60.04,20.50 -74.44,20.71 -74.35,27.10 -72.13,27.52 -71.37,28.06 -70.83,28.83 -70.51,29.83 -70.42,31.05 -64.03,31.17 -63.54,28.82 -62.97,28.00 -62.18,27.40 -61.17,27.03">
        <request index="0" response="000000" foes="001000" cont="0"/>
        <request index="1" response="000000" foes="111000" cont="0"/>
        <request index="2" response="000000" foes="100000" cont="0"/>
        <request index="3" response="000011" foes="100011" cont="1"/>
        <request index="4" response="000010" foes="000010" cont="0"/>
        <request index="5" response="001110" foes="001110" cont="0"/>
    </junction>
    <junction id="J5" type="dead_end" x="34.82" y="22.33" incLanes="E3_0" intLanes="" shape="34.82,22.33 34.77,19.13 34.82,22.33"/>
    <junction id="J6" type="dead_end" x="-67.97" y="69.81" incLanes="E4_0" intLanes="" shape="-67.97,69.81 -64.77,69.87 -67.97,69.81"/>

    <junction id=":J4_6_0" type="internal" x="-70.38" y="22.89" incLanes=":J4_3_0 -E3_0" intLanes=":J4_0_0 :J4_1_0 :J4_5_0"/>

    <connection from="-E3" to="E4" fromLane="0" toLane="0" via=":J4_0_0" tl="J4" linkIndex="0" dir="r" state="O"/>
    <connection from="-E3" to="-E2" fromLane="0" toLane="0" via=":J4_1_0" tl="J4" linkIndex="1" dir="s" state="O"/>
    <connection from="-E4" to="-E2" fromLane="0" toLane="0" via=":J4_4_0" tl="J4" linkIndex="4" dir="r" state="o"/>
    <connection from="-E4" to="E3" fromLane="0" toLane="0" via=":J4_5_0" tl="J4" linkIndex="5" dir="l" state="o"/>
    <connection from="E2" to="E3" fromLane="0" toLane="0" via=":J4_2_0" tl="J4" linkIndex="2" dir="s" state="O"/>
    <connection from="E2" to="E4" fromLane="0" toLane="0" via=":J4_3_0" tl="J4" linkIndex="3" dir="l" state="o"/>

    <connection from=":J4_0" to="E4" fromLane="0" toLane="0" dir="r" state="M"/>
    <connection from=":J4_1" to="-E2" fromLane="0" toLane="0" dir="s" state="M"/>
    <connection from=":J4_2" to="E3" fromLane="0" toLane="0" dir="s" state="M"/>
    <connection from=":J4_3" to="E4" fromLane="0" toLane="0" via=":J4_6_0" dir="l" state="m"/>
    <connection from=":J4_6" to="E4" fromLane="0" toLane="0" dir="l" state="M"/>
    <connection from=":J4_4" to="-E2" fromLane="0" toLane="0" dir="r" state="M"/>
    <connection from=":J4_5" to="E3" fromLane="0" toLane="0" dir="l" state="M"/>

</net>
